 ****** HSPICE -- N-2017.12-SP2 linux64 (May 24 2018) ******                    
  Copyright (c) 1986 - 2026 by Synopsys, Inc. All Rights Reserved.              
  This software and the associated documentation are proprietary
  to Synopsys, Inc. This software may only be used in accordance
  with the terms and conditions of a written license agreement with
  Synopsys, Inc. All other use, reproduction, or distribution of
  this software is strictly prohibited.
  Input File: UGA.sp                                                            
  Command line options: /home/IC/Synopsys/hspice/N-2017.12-SP2/hspice/linux64/hspice UGA.sp -o UGA.lis
 lic:  
 lic: FLEXlm: SDK_11.6.9.3 
 lic: USER:   IC                   HOSTNAME: IC 
 lic: HOSTID: 000c29935feb         PID:      36960 
 lic: Using FLEXlm license file: 
 lic: 27000@IC 
 lic: Checkout 1 hspice 
 lic: License/Maintenance for hspice will expire on 30-dec-2030/2019.2019 
 lic: 1(in_use)/99(total) FLOATING license(s) on SERVER 27000@IC 
 lic:   
  
      
 *****************************************************************
 ******  option summary
 ******
 runlvl  = 6         bypass  = 2.0000    




 ****     small-signal transfer characteristics

        vin        input resistance at vin       output resistance at v(out)      v(out)/vin      

       0.                1.000e+20                       0.                       999.0010m
      10.0000m           1.000e+20                       0.                       999.0010m
      20.0000m           1.000e+20                       0.                       999.0010m
      30.0000m           1.000e+20                       0.                       999.0010m
      40.0000m           1.000e+20                       0.                       999.0010m
      50.0000m           1.000e+20                       0.                       999.0010m
      60.0000m           1.000e+20                       0.                       999.0010m
      70.0000m           1.000e+20                       0.                       999.0010m
      80.0000m           1.000e+20                       0.                       999.0010m
      90.0000m           1.000e+20                       0.                       999.0010m
     100.0000m           1.000e+20                       0.                       999.0010m
     110.0000m           1.000e+20                       0.                       999.0010m
     120.0000m           1.000e+20                       0.                       999.0010m
     130.0000m           1.000e+20                       0.                       999.0010m
     140.0000m           1.000e+20                       0.                       999.0010m
     150.0000m           1.000e+20                       0.                       999.0010m
     160.0000m           1.000e+20                       0.                       999.0010m
     170.0000m           1.000e+20                       0.                       999.0010m
     180.0000m           1.000e+20                       0.                       999.0010m
     190.0000m           1.000e+20                       0.                       999.0010m
     200.0000m           1.000e+20                       0.                       999.0010m
     210.0000m           1.000e+20                       0.                       999.0010m
     220.0000m           1.000e+20                       0.                       999.0010m
     230.0000m           1.000e+20                       0.                       999.0010m
     240.0000m           1.000e+20                       0.                       999.0010m
     250.0000m           1.000e+20                       0.                       999.0010m
     260.0000m           1.000e+20                       0.                       999.0010m
     270.0000m           1.000e+20                       0.                       999.0010m
     280.0000m           1.000e+20                       0.                       999.0010m
     290.0000m           1.000e+20                       0.                       999.0010m
     300.0000m           1.000e+20                       0.                       999.0010m
     310.0000m           1.000e+20                       0.                       999.0010m
     320.0000m           1.000e+20                       0.                       999.0010m
     330.0000m           1.000e+20                       0.                       999.0010m
     340.0000m           1.000e+20                       0.                       999.0010m
     350.0000m           1.000e+20                       0.                       999.0010m
     360.0000m           1.000e+20                       0.                       999.0010m
     370.0000m           1.000e+20                       0.                       999.0010m
     380.0000m           1.000e+20                       0.                       999.0010m
     390.0000m           1.000e+20                       0.                       999.0010m
     400.0000m           1.000e+20                       0.                       999.0010m
     410.0000m           1.000e+20                       0.                       999.0010m
     420.0000m           1.000e+20                       0.                       999.0010m
     430.0000m           1.000e+20                       0.                       999.0010m
     440.0000m           1.000e+20                       0.                       999.0010m
     450.0000m           1.000e+20                       0.                       999.0010m
     460.0000m           1.000e+20                       0.                       999.0010m
     470.0000m           1.000e+20                       0.                       999.0010m
     480.0000m           1.000e+20                       0.                       999.0010m
     490.0000m           1.000e+20                       0.                       999.0010m
     500.0000m           1.000e+20                       0.                       999.0010m
     510.0000m           1.000e+20                       0.                       999.0010m
     520.0000m           1.000e+20                       0.                       999.0010m
     530.0000m           1.000e+20                       0.                       999.0010m
     540.0000m           1.000e+20                       0.                       999.0010m
     550.0000m           1.000e+20                       0.                       999.0010m
     560.0000m           1.000e+20                       0.                       999.0010m
     570.0000m           1.000e+20                       0.                       999.0010m
     580.0000m           1.000e+20                       0.                       999.0010m
     590.0000m           1.000e+20                       0.                       999.0010m
     600.0000m           1.000e+20                       0.                       999.0010m
     610.0000m           1.000e+20                       0.                       999.0010m
     620.0000m           1.000e+20                       0.                       999.0010m
     630.0000m           1.000e+20                       0.                       999.0010m
     640.0000m           1.000e+20                       0.                       999.0010m
     650.0000m           1.000e+20                       0.                       999.0010m
     660.0000m           1.000e+20                       0.                       999.0010m
     670.0000m           1.000e+20                       0.                       999.0010m
     680.0000m           1.000e+20                       0.                       999.0010m
     690.0000m           1.000e+20                       0.                       999.0010m
     700.0000m           1.000e+20                       0.                       999.0010m
     710.0000m           1.000e+20                       0.                       999.0010m
     720.0000m           1.000e+20                       0.                       999.0010m
     730.0000m           1.000e+20                       0.                       999.0010m
     740.0000m           1.000e+20                       0.                       999.0010m
     750.0000m           1.000e+20                       0.                       999.0010m
     760.0000m           1.000e+20                       0.                       999.0010m
     770.0000m           1.000e+20                       0.                       999.0010m
     780.0000m           1.000e+20                       0.                       999.0010m
     790.0000m           1.000e+20                       0.                       999.0010m
     800.0000m           1.000e+20                       0.                       999.0010m
     810.0000m           1.000e+20                       0.                       999.0010m
     820.0000m           1.000e+20                       0.                       999.0010m
     830.0000m           1.000e+20                       0.                       999.0010m
     840.0000m           1.000e+20                       0.                       999.0010m
     850.0000m           1.000e+20                       0.                       999.0010m
     860.0000m           1.000e+20                       0.                       999.0010m
     870.0000m           1.000e+20                       0.                       999.0010m
     880.0000m           1.000e+20                       0.                       999.0010m
     890.0000m           1.000e+20                       0.                       999.0010m
     900.0000m           1.000e+20                       0.                       999.0010m
     910.0000m           1.000e+20                       0.                       999.0010m
     920.0000m           1.000e+20                       0.                       999.0010m
     930.0000m           1.000e+20                       0.                       999.0010m
     940.0000m           1.000e+20                       0.                       999.0010m
     950.0000m           1.000e+20                       0.                       999.0010m
     960.0000m           1.000e+20                       0.                       999.0010m
     970.0000m           1.000e+20                       0.                       999.0010m
     980.0000m           1.000e+20                       0.                       999.0010m
     990.0000m           1.000e+20                       0.                       999.0010m
       1.0000            1.000e+20                       0.                       999.0010m
       1.0100            1.000e+20                       0.                       999.0010m
       1.0200            1.000e+20                       0.                       999.0010m
       1.0300            1.000e+20                       0.                       999.0010m
       1.0400            1.000e+20                       0.                       999.0010m
       1.0500            1.000e+20                       0.                       999.0010m
       1.0600            1.000e+20                       0.                       999.0010m
       1.0700            1.000e+20                       0.                       999.0010m
       1.0800            1.000e+20                       0.                       999.0010m
       1.0900            1.000e+20                       0.                       999.0010m
       1.1000            1.000e+20                       0.                       999.0010m
       1.1100            1.000e+20                       0.                       999.0010m
       1.1200            1.000e+20                       0.                       999.0010m
       1.1300            1.000e+20                       0.                       999.0010m
       1.1400            1.000e+20                       0.                       999.0010m
       1.1500            1.000e+20                       0.                       999.0010m
       1.1600            1.000e+20                       0.                       999.0010m
       1.1700            1.000e+20                       0.                       999.0010m
       1.1800            1.000e+20                       0.                       999.0010m
       1.1900            1.000e+20                       0.                       999.0010m
       1.2000            1.000e+20                       0.                       999.0010m
       1.2100            1.000e+20                       0.                       999.0010m
       1.2200            1.000e+20                       0.                       999.0010m
       1.2300            1.000e+20                       0.                       999.0010m
       1.2400            1.000e+20                       0.                       999.0010m
       1.2500            1.000e+20                       0.                       999.0010m
       1.2600            1.000e+20                       0.                       999.0010m
       1.2700            1.000e+20                       0.                       999.0010m
       1.2800            1.000e+20                       0.                       999.0010m
       1.2900            1.000e+20                       0.                       999.0010m
       1.3000            1.000e+20                       0.                       999.0010m
       1.3100            1.000e+20                       0.                       999.0010m
       1.3200            1.000e+20                       0.                       999.0010m
       1.3300            1.000e+20                       0.                       999.0010m
       1.3400            1.000e+20                       0.                       999.0010m
       1.3500            1.000e+20                       0.                       999.0010m
       1.3600            1.000e+20                       0.                       999.0010m
       1.3700            1.000e+20                       0.                       999.0010m
       1.3800            1.000e+20                       0.                       999.0010m
       1.3900            1.000e+20                       0.                       999.0010m
       1.4000            1.000e+20                       0.                       999.0010m
       1.4100            1.000e+20                       0.                       999.0010m
       1.4200            1.000e+20                       0.                       999.0010m
       1.4300            1.000e+20                       0.                       999.0010m
       1.4400            1.000e+20                       0.                       999.0010m
       1.4500            1.000e+20                       0.                       999.0010m
       1.4600            1.000e+20                       0.                       999.0010m
       1.4700            1.000e+20                       0.                       999.0010m
       1.4800            1.000e+20                       0.                       999.0010m
       1.4900            1.000e+20                       0.                       999.0010m
       1.5000            1.000e+20                       0.                       999.0010m
       1.5100            1.000e+20                       0.                       999.0010m
       1.5200            1.000e+20                       0.                       999.0010m
       1.5300            1.000e+20                       0.                       999.0010m
       1.5400            1.000e+20                       0.                       999.0010m
       1.5500            1.000e+20                       0.                       999.0010m
       1.5600            1.000e+20                       0.                       999.0010m
       1.5700            1.000e+20                       0.                       999.0010m
       1.5800            1.000e+20                       0.                       999.0010m
       1.5900            1.000e+20                       0.                       999.0010m
       1.6000            1.000e+20                       0.                       999.0010m
       1.6100            1.000e+20                       0.                       999.0010m
       1.6200            1.000e+20                       0.                       999.0010m
       1.6300            1.000e+20                       0.                       999.0010m
       1.6400            1.000e+20                       0.                       999.0010m
       1.6500            1.000e+20                       0.                       999.0010m
       1.6600            1.000e+20                       0.                       999.0010m
       1.6700            1.000e+20                       0.                       999.0010m
       1.6800            1.000e+20                       0.                       999.0010m
       1.6900            1.000e+20                       0.                       999.0010m
       1.7000            1.000e+20                       0.                       999.0010m
       1.7100            1.000e+20                       0.                       999.0010m
       1.7200            1.000e+20                       0.                       999.0010m
       1.7300            1.000e+20                       0.                       999.0010m
       1.7400            1.000e+20                       0.                       999.0010m
       1.7500            1.000e+20                       0.                       999.0010m
       1.7600            1.000e+20                       0.                       999.0010m
       1.7700            1.000e+20                       0.                       999.0010m
       1.7800            1.000e+20                       0.                       999.0010m
       1.7900            1.000e+20                       0.                       999.0010m
       1.8000            1.000e+20                       0.                       999.0010m
       1.8100            1.000e+20                       0.                       999.0010m
       1.8200            1.000e+20                       0.                       999.0010m
       1.8300            1.000e+20                       0.                       999.0010m
       1.8400            1.000e+20                       0.                       999.0010m
       1.8500            1.000e+20                       0.                       999.0010m
       1.8600            1.000e+20                       0.                       999.0010m
       1.8700            1.000e+20                       0.                       999.0010m
       1.8800            1.000e+20                       0.                       999.0010m
       1.8900            1.000e+20                       0.                       999.0010m
       1.9000            1.000e+20                       0.                       999.0010m
       1.9100            1.000e+20                       0.                       999.0010m
       1.9200            1.000e+20                       0.                       999.0010m
       1.9300            1.000e+20                       0.                       999.0010m
       1.9400            1.000e+20                       0.                       999.0010m
       1.9500            1.000e+20                       0.                       999.0010m
       1.9600            1.000e+20                       0.                       999.0010m
       1.9700            1.000e+20                       0.                       999.0010m
       1.9800            1.000e+20                       0.                       999.0010m
       1.9900            1.000e+20                       0.                       999.0010m
       2.0000            1.000e+20                       0.                       999.0010m
       2.0100            1.000e+20                       0.                       999.0010m
       2.0200            1.000e+20                       0.                       999.0010m
       2.0300            1.000e+20                       0.                       999.0010m
       2.0400            1.000e+20                       0.                       999.0010m
       2.0500            1.000e+20                       0.                       999.0010m
       2.0600            1.000e+20                       0.                       999.0010m
       2.0700            1.000e+20                       0.                       999.0010m
       2.0800            1.000e+20                       0.                       999.0010m
       2.0900            1.000e+20                       0.                       999.0010m
       2.1000            1.000e+20                       0.                       999.0010m
       2.1100            1.000e+20                       0.                       999.0010m
       2.1200            1.000e+20                       0.                       999.0010m
       2.1300            1.000e+20                       0.                       999.0010m
       2.1400            1.000e+20                       0.                       999.0010m
       2.1500            1.000e+20                       0.                       999.0010m
       2.1600            1.000e+20                       0.                       999.0010m
       2.1700            1.000e+20                       0.                       999.0010m
       2.1800            1.000e+20                       0.                       999.0010m
       2.1900            1.000e+20                       0.                       999.0010m
       2.2000            1.000e+20                       0.                       999.0010m
       2.2100            1.000e+20                       0.                       999.0010m
       2.2200            1.000e+20                       0.                       999.0010m
       2.2300            1.000e+20                       0.                       999.0010m
       2.2400            1.000e+20                       0.                       999.0010m
       2.2500            1.000e+20                       0.                       999.0010m
       2.2600            1.000e+20                       0.                       999.0010m
       2.2700            1.000e+20                       0.                       999.0010m
       2.2800            1.000e+20                       0.                       999.0010m
       2.2900            1.000e+20                       0.                       999.0010m
       2.3000            1.000e+20                       0.                       999.0010m
       2.3100            1.000e+20                       0.                       999.0010m
       2.3200            1.000e+20                       0.                       999.0010m
       2.3300            1.000e+20                       0.                       999.0010m
       2.3400            1.000e+20                       0.                       999.0010m
       2.3500            1.000e+20                       0.                       999.0010m
       2.3600            1.000e+20                       0.                       999.0010m
       2.3700            1.000e+20                       0.                       999.0010m
       2.3800            1.000e+20                       0.                       999.0010m
       2.3900            1.000e+20                       0.                       999.0010m
       2.4000            1.000e+20                       0.                       999.0010m
       2.4100            1.000e+20                       0.                       999.0010m
       2.4200            1.000e+20                       0.                       999.0010m
       2.4300            1.000e+20                       0.                       999.0010m
       2.4400            1.000e+20                       0.                       999.0010m
       2.4500            1.000e+20                       0.                       999.0010m
       2.4600            1.000e+20                       0.                       999.0010m
       2.4700            1.000e+20                       0.                       999.0010m
       2.4800            1.000e+20                       0.                       999.0010m
       2.4900            1.000e+20                       0.                       999.0010m
       2.5000            1.000e+20                       0.                       999.0010m
       2.5100            1.000e+20                       0.                       999.0010m
       2.5200            1.000e+20                       0.                       999.0010m
       2.5300            1.000e+20                       0.                       999.0010m
       2.5400            1.000e+20                       0.                       999.0010m
       2.5500            1.000e+20                       0.                       999.0010m
       2.5600            1.000e+20                       0.                       999.0010m
       2.5700            1.000e+20                       0.                       999.0010m
       2.5800            1.000e+20                       0.                       999.0010m
       2.5900            1.000e+20                       0.                       999.0010m
       2.6000            1.000e+20                       0.                       999.0010m
       2.6100            1.000e+20                       0.                       999.0010m
       2.6200            1.000e+20                       0.                       999.0010m
       2.6300            1.000e+20                       0.                       999.0010m
       2.6400            1.000e+20                       0.                       999.0010m
       2.6500            1.000e+20                       0.                       999.0010m
       2.6600            1.000e+20                       0.                       999.0010m
       2.6700            1.000e+20                       0.                       999.0010m
       2.6800            1.000e+20                       0.                       999.0010m
       2.6900            1.000e+20                       0.                       999.0010m
       2.7000            1.000e+20                       0.                       999.0010m
       2.7100            1.000e+20                       0.                       999.0010m
       2.7200            1.000e+20                       0.                       999.0010m
       2.7300            1.000e+20                       0.                       999.0010m
       2.7400            1.000e+20                       0.                       999.0010m
       2.7500            1.000e+20                       0.                       999.0010m
       2.7600            1.000e+20                       0.                       999.0010m
       2.7700            1.000e+20                       0.                       999.0010m
       2.7800            1.000e+20                       0.                       999.0010m
       2.7900            1.000e+20                       0.                       999.0010m
       2.8000            1.000e+20                       0.                       999.0010m
       2.8100            1.000e+20                       0.                       999.0010m
       2.8200            1.000e+20                       0.                       999.0010m
       2.8300            1.000e+20                       0.                       999.0010m
       2.8400            1.000e+20                       0.                       999.0010m
       2.8500            1.000e+20                       0.                       999.0010m
       2.8600            1.000e+20                       0.                       999.0010m
       2.8700            1.000e+20                       0.                       999.0010m
       2.8800            1.000e+20                       0.                       999.0010m
       2.8900            1.000e+20                       0.                       999.0010m
       2.9000            1.000e+20                       0.                       999.0010m
       2.9100            1.000e+20                       0.                       999.0010m
       2.9200            1.000e+20                       0.                       999.0010m
       2.9300            1.000e+20                       0.                       999.0010m
       2.9400            1.000e+20                       0.                       999.0010m
       2.9500            1.000e+20                       0.                       999.0010m
       2.9600            1.000e+20                       0.                       999.0010m
       2.9700            1.000e+20                       0.                       999.0010m
       2.9800            1.000e+20                       0.                       999.0010m
       2.9900            1.000e+20                       0.                       999.0010m
       3.0000            1.000e+20                       0.                       999.0010m
       3.0100            1.000e+20                       0.                       999.0010m
       3.0200            1.000e+20                       0.                       999.0010m
       3.0300            1.000e+20                       0.                       999.0010m
       3.0400            1.000e+20                       0.                       999.0010m
       3.0500            1.000e+20                       0.                       999.0010m
       3.0600            1.000e+20                       0.                       999.0010m
       3.0700            1.000e+20                       0.                       999.0010m
       3.0800            1.000e+20                       0.                       999.0010m
       3.0900            1.000e+20                       0.                       999.0010m
       3.1000            1.000e+20                       0.                       999.0010m
       3.1100            1.000e+20                       0.                       999.0010m
       3.1200            1.000e+20                       0.                       999.0010m
       3.1300            1.000e+20                       0.                       999.0010m
       3.1400            1.000e+20                       0.                       999.0010m
       3.1500            1.000e+20                       0.                       999.0010m
       3.1600            1.000e+20                       0.                       999.0010m
       3.1700            1.000e+20                       0.                       999.0010m
       3.1800            1.000e+20                       0.                       999.0010m
       3.1900            1.000e+20                       0.                       999.0010m
       3.2000            1.000e+20                       0.                       999.0010m
       3.2100            1.000e+20                       0.                       999.0010m
       3.2200            1.000e+20                       0.                       999.0010m
       3.2300            1.000e+20                       0.                       999.0010m
       3.2400            1.000e+20                       0.                       999.0010m
       3.2500            1.000e+20                       0.                       999.0010m
       3.2600            1.000e+20                       0.                       999.0010m
       3.2700            1.000e+20                       0.                       999.0010m
       3.2800            1.000e+20                       0.                       999.0010m
       3.2900            1.000e+20                       0.                       999.0010m
       3.3000            1.000e+20                       0.                       999.0010m
       3.3100            1.000e+20                       0.                       999.0010m
       3.3200            1.000e+20                       0.                       999.0010m
       3.3300            1.000e+20                       0.                       999.0010m
       3.3400            1.000e+20                       0.                       999.0010m
       3.3500            1.000e+20                       0.                       999.0010m
       3.3600            1.000e+20                       0.                       999.0010m
       3.3700            1.000e+20                       0.                       999.0010m
       3.3800            1.000e+20                       0.                       999.0010m
       3.3900            1.000e+20                       0.                       999.0010m
       3.4000            1.000e+20                       0.                       999.0010m
       3.4100            1.000e+20                       0.                       999.0010m
       3.4200            1.000e+20                       0.                       999.0010m
       3.4300            1.000e+20                       0.                       999.0010m
       3.4400            1.000e+20                       0.                       999.0010m
       3.4500            1.000e+20                       0.                       999.0010m
       3.4600            1.000e+20                       0.                       999.0010m
       3.4700            1.000e+20                       0.                       999.0010m
       3.4800            1.000e+20                       0.                       999.0010m
       3.4900            1.000e+20                       0.                       999.0010m
       3.5000            1.000e+20                       0.                       999.0010m
       3.5100            1.000e+20                       0.                       999.0010m
       3.5200            1.000e+20                       0.                       999.0010m
       3.5300            1.000e+20                       0.                       999.0010m
       3.5400            1.000e+20                       0.                       999.0010m
       3.5500            1.000e+20                       0.                       999.0010m
       3.5600            1.000e+20                       0.                       999.0010m
       3.5700            1.000e+20                       0.                       999.0010m
       3.5800            1.000e+20                       0.                       999.0010m
       3.5900            1.000e+20                       0.                       999.0010m
       3.6000            1.000e+20                       0.                       999.0010m
       3.6100            1.000e+20                       0.                       999.0010m
       3.6200            1.000e+20                       0.                       999.0010m
       3.6300            1.000e+20                       0.                       999.0010m
       3.6400            1.000e+20                       0.                       999.0010m
       3.6500            1.000e+20                       0.                       999.0010m
       3.6600            1.000e+20                       0.                       999.0010m
       3.6700            1.000e+20                       0.                       999.0010m
       3.6800            1.000e+20                       0.                       999.0010m
       3.6900            1.000e+20                       0.                       999.0010m
       3.7000            1.000e+20                       0.                       999.0010m
       3.7100            1.000e+20                       0.                       999.0010m
       3.7200            1.000e+20                       0.                       999.0010m
       3.7300            1.000e+20                       0.                       999.0010m
       3.7400            1.000e+20                       0.                       999.0010m
       3.7500            1.000e+20                       0.                       999.0010m
       3.7600            1.000e+20                       0.                       999.0010m
       3.7700            1.000e+20                       0.                       999.0010m
       3.7800            1.000e+20                       0.                       999.0010m
       3.7900            1.000e+20                       0.                       999.0010m
       3.8000            1.000e+20                       0.                       999.0010m
       3.8100            1.000e+20                       0.                       999.0010m
       3.8200            1.000e+20                       0.                       999.0010m
       3.8300            1.000e+20                       0.                       999.0010m
       3.8400            1.000e+20                       0.                       999.0010m
       3.8500            1.000e+20                       0.                       999.0010m
       3.8600            1.000e+20                       0.                       999.0010m
       3.8700            1.000e+20                       0.                       999.0010m
       3.8800            1.000e+20                       0.                       999.0010m
       3.8900            1.000e+20                       0.                       999.0010m
       3.9000            1.000e+20                       0.                       999.0010m
       3.9100            1.000e+20                       0.                       999.0010m
       3.9200            1.000e+20                       0.                       999.0010m
       3.9300            1.000e+20                       0.                       999.0010m
       3.9400            1.000e+20                       0.                       999.0010m
       3.9500            1.000e+20                       0.                       999.0010m
       3.9600            1.000e+20                       0.                       999.0010m
       3.9700            1.000e+20                       0.                       999.0010m
       3.9800            1.000e+20                       0.                       999.0010m
       3.9900            1.000e+20                       0.                       999.0010m
       4.0000            1.000e+20                       0.                       999.0010m
       4.0100            1.000e+20                       0.                       999.0010m
       4.0200            1.000e+20                       0.                       999.0010m
       4.0300            1.000e+20                       0.                       999.0010m
       4.0400            1.000e+20                       0.                       999.0010m
       4.0500            1.000e+20                       0.                       999.0010m
       4.0600            1.000e+20                       0.                       999.0010m
       4.0700            1.000e+20                       0.                       999.0010m
       4.0800            1.000e+20                       0.                       999.0010m
       4.0900            1.000e+20                       0.                       999.0010m
       4.1000            1.000e+20                       0.                       999.0010m
       4.1100            1.000e+20                       0.                       999.0010m
       4.1200            1.000e+20                       0.                       999.0010m
       4.1300            1.000e+20                       0.                       999.0010m
       4.1400            1.000e+20                       0.                       999.0010m
       4.1500            1.000e+20                       0.                       999.0010m
       4.1600            1.000e+20                       0.                       999.0010m
       4.1700            1.000e+20                       0.                       999.0010m
       4.1800            1.000e+20                       0.                       999.0010m
       4.1900            1.000e+20                       0.                       999.0010m
       4.2000            1.000e+20                       0.                       999.0010m
       4.2100            1.000e+20                       0.                       999.0010m
       4.2200            1.000e+20                       0.                       999.0010m
       4.2300            1.000e+20                       0.                       999.0010m
       4.2400            1.000e+20                       0.                       999.0010m
       4.2500            1.000e+20                       0.                       999.0010m
       4.2600            1.000e+20                       0.                       999.0010m
       4.2700            1.000e+20                       0.                       999.0010m
       4.2800            1.000e+20                       0.                       999.0010m
       4.2900            1.000e+20                       0.                       999.0010m
       4.3000            1.000e+20                       0.                       999.0010m
       4.3100            1.000e+20                       0.                       999.0010m
       4.3200            1.000e+20                       0.                       999.0010m
       4.3300            1.000e+20                       0.                       999.0010m
       4.3400            1.000e+20                       0.                       999.0010m
       4.3500            1.000e+20                       0.                       999.0010m
       4.3600            1.000e+20                       0.                       999.0010m
       4.3700            1.000e+20                       0.                       999.0010m
       4.3800            1.000e+20                       0.                       999.0010m
       4.3900            1.000e+20                       0.                       999.0010m
       4.4000            1.000e+20                       0.                       999.0010m
       4.4100            1.000e+20                       0.                       999.0010m
       4.4200            1.000e+20                       0.                       999.0010m
       4.4300            1.000e+20                       0.                       999.0010m
       4.4400            1.000e+20                       0.                       999.0010m
       4.4500            1.000e+20                       0.                       999.0010m
       4.4600            1.000e+20                       0.                       999.0010m
       4.4700            1.000e+20                       0.                       999.0010m
       4.4800            1.000e+20                       0.                       999.0010m
       4.4900            1.000e+20                       0.                       999.0010m
       4.5000            1.000e+20                       0.                       999.0010m
       4.5100            1.000e+20                       0.                       999.0010m
       4.5200            1.000e+20                       0.                       999.0010m
       4.5300            1.000e+20                       0.                       999.0010m
       4.5400            1.000e+20                       0.                       999.0010m
       4.5500            1.000e+20                       0.                       999.0010m
       4.5600            1.000e+20                       0.                       999.0010m
       4.5700            1.000e+20                       0.                       999.0010m
       4.5800            1.000e+20                       0.                       999.0010m
       4.5900            1.000e+20                       0.                       999.0010m
       4.6000            1.000e+20                       0.                       999.0010m
       4.6100            1.000e+20                       0.                       999.0010m
       4.6200            1.000e+20                       0.                       999.0010m
       4.6300            1.000e+20                       0.                       999.0010m
       4.6400            1.000e+20                       0.                       999.0010m
       4.6500            1.000e+20                       0.                       999.0010m
       4.6600            1.000e+20                       0.                       999.0010m
       4.6700            1.000e+20                       0.                       999.0010m
       4.6800            1.000e+20                       0.                       999.0010m
       4.6900            1.000e+20                       0.                       999.0010m
       4.7000            1.000e+20                       0.                       999.0010m
       4.7100            1.000e+20                       0.                       999.0010m
       4.7200            1.000e+20                       0.                       999.0010m
       4.7300            1.000e+20                       0.                       999.0010m
       4.7400            1.000e+20                       0.                       999.0010m
       4.7500            1.000e+20                       0.                       999.0010m
       4.7600            1.000e+20                       0.                       999.0010m
       4.7700            1.000e+20                       0.                       999.0010m
       4.7800            1.000e+20                       0.                       999.0010m
       4.7900            1.000e+20                       0.                       999.0010m
       4.8000            1.000e+20                       0.                       999.0010m
       4.8100            1.000e+20                       0.                       999.0010m
       4.8200            1.000e+20                       0.                       999.0010m
       4.8300            1.000e+20                       0.                       999.0010m
       4.8400            1.000e+20                       0.                       999.0010m
       4.8500            1.000e+20                       0.                       999.0010m
       4.8600            1.000e+20                       0.                       999.0010m
       4.8700            1.000e+20                       0.                       999.0010m
       4.8800            1.000e+20                       0.                       999.0010m
       4.8900            1.000e+20                       0.                       999.0010m
       4.9000            1.000e+20                       0.                       999.0010m
       4.9100            1.000e+20                       0.                       999.0010m
       4.9200            1.000e+20                       0.                       999.0010m
       4.9300            1.000e+20                       0.                       999.0010m
       4.9400            1.000e+20                       0.                       999.0010m
       4.9500            1.000e+20                       0.                       999.0010m
       4.9600            1.000e+20                       0.                       999.0010m
       4.9700            1.000e+20                       0.                       999.0010m
       4.9800            1.000e+20                       0.                       999.0010m
       4.9900            1.000e+20                       0.                       999.0010m
       5.0000            1.000e+20                       0.                       999.0010m
  
 **info** dc convergence successful at Newton-Raphson method 
1****** HSPICE -- N-2017.12-SP2 linux64 (May 24 2018) ******                    
 ******  
 *lab4

 ****** operating point information tnom=  25.000 temp=  25.000 ******
 ****** operating point status is all       simulation time is     0.     
    node    =voltage      node    =voltage

 +0:in      = 100.0000m 0:out     =  99.9001m


 maximum nodal capacitance=    0.00             on node     0:0               

    nodal  capacitance table 

    node    =    cap      node    =    cap

 +0:in      =   0.      0:out     =   0.     

 

 **** voltage sources

 subckt             
 element  0:vin     
  volts    100.0000m
  current    0.     
  power      0.     

     total voltage source power dissipation=    0.            watts



 **** resistors

 subckt             
 element  0:rl      
  r value    1.0000m
  v drop    99.9001m
  current   99.9001 
  power      9.9800 


 **** voltage-controlled voltage sources


 subckt             
 element  0:eopamp  
  volts     99.9001m
  current  -99.9001 







 ****     small-signal transfer characteristics

      v(out)/vin                               =  999.0010m
      input resistance at             vin      =  1.000e+20
      output resistance at v(out)              =    0.     




          ***** job concluded
 ******  
 *lab4

 ****** job statistics summary tnom=  25.000 temp=  25.000 ******
  
  
 ******  Machine Information  ******
 CPU:
 model name	: 13th Gen Intel(R) Core(TM) i5-13600KF
 cpu MHz	: 3494.401
  
 OS:
 Linux version 3.10.0-1062.el7.x86_64 (mockbuild@kbuilder.bsys.centos.org) (gcc version 4.8.5 20150623 (Red Hat 4.8.5-36) (GCC) ) #1 SMP Wed Aug 7 18:08:02 UTC 2019


  ******  HSPICE Threads Information  ******

  Command Line Threads Count :     1
  Available CPU Count        :     4
  Actual Threads Count       :     1


  ******  Circuit Statistics  ******
  # nodes       =       3 # elements   =       3
  # resistors   =       1 # capacitors =       0 # inductors   =       0
  # mutual_inds =       0 # vccs       =       0 # vcvs        =       1
  # cccs        =       0 # ccvs       =       0 # volt_srcs   =       1
  # curr_srcs   =       0 # diodes     =       0 # bjts        =       0
  # jfets       =       0 # mosfets    =       0 # U elements  =       0
  # T elements  =       0 # W elements =       0 # B elements  =       0
  # S elements  =       0 # P elements =       0 # va device   =       0
  # vector_srcs =       0 # N elements =       0


  ******  Runtime Statistics (seconds)  ******

  analysis           time    # points   tot. iter  conv.iter
  op point           0.00           1           4
  dc sweep           0.00         501        1003
  readin             0.01
  errchk             0.00
  setup              0.00
  output             0.00


           peak memory used        316.06 megabytes
           total cpu time            0.01 seconds
           total elapsed time        0.15 seconds
           job started at     20:35:18 02/10/2026
           job ended   at     20:35:19 02/10/2026


 lic: Release hspice token(s) 
 lic: total license checkout elapse time:        0.14(s)
