 ****** HSPICE -- N-2017.12-SP2 linux64 (May 24 2018) ******                    
  Copyright (c) 1986 - 2026 by Synopsys, Inc. All Rights Reserved.              
  This software and the associated documentation are proprietary
  to Synopsys, Inc. This software may only be used in accordance
  with the terms and conditions of a written license agreement with
  Synopsys, Inc. All other use, reproduction, or distribution of
  this software is strictly prohibited.
  Input File: IA.sp                                                             
  Command line options: /home/IC/Synopsys/hspice/N-2017.12-SP2/hspice/linux64/hspice IA.sp -o IA.lis
 lic:  
 lic: FLEXlm: SDK_11.6.9.3 
 lic: USER:   IC                   HOSTNAME: IC 
 lic: HOSTID: 000c29935feb         PID:      39025 
 lic: Using FLEXlm license file: 
 lic: 27000@IC 
 lic: Checkout 1 hspice 
 lic: License/Maintenance for hspice will expire on 30-dec-2030/2019.2019 
 lic: 1(in_use)/99(total) FLOATING license(s) on SERVER 27000@IC 
 lic:   
  
      
 *****************************************************************
 ******  option summary
 ******
 runlvl  = 6         bypass  = 2.0000    




 ****     small-signal transfer characteristics

        vin        input resistance at vin       output resistance at v(out)      v(out)/vin      

       0.                  1.0310k                       0.                       -30.0388 
      10.0000m             1.0310k                       0.                       -30.0388 
      20.0000m             1.0310k                       0.                       -30.0388 
      30.0000m             1.0310k                       0.                       -30.0388 
      40.0000m             1.0310k                       0.                       -30.0388 
      50.0000m             1.0310k                       0.                       -30.0388 
      60.0000m             1.0310k                       0.                       -30.0388 
      70.0000m             1.0310k                       0.                       -30.0388 
      80.0000m             1.0310k                       0.                       -30.0388 
      90.0000m             1.0310k                       0.                       -30.0388 
     100.0000m             1.0310k                       0.                       -30.0388 
     110.0000m             1.0310k                       0.                       -30.0388 
     120.0000m             1.0310k                       0.                       -30.0388 
     130.0000m             1.0310k                       0.                       -30.0388 
     140.0000m             1.0310k                       0.                       -30.0388 
     150.0000m             1.0310k                       0.                       -30.0388 
     160.0000m             1.0310k                       0.                       -30.0388 
     170.0000m             1.0310k                       0.                       -30.0388 
     180.0000m             1.0310k                       0.                       -30.0388 
     190.0000m             1.0310k                       0.                       -30.0388 
     200.0000m             1.0310k                       0.                       -30.0388 
     210.0000m             1.0310k                       0.                       -30.0388 
     220.0000m             1.0310k                       0.                       -30.0388 
     230.0000m             1.0310k                       0.                       -30.0388 
     240.0000m             1.0310k                       0.                       -30.0388 
     250.0000m             1.0310k                       0.                       -30.0388 
     260.0000m             1.0310k                       0.                       -30.0388 
     270.0000m             1.0310k                       0.                       -30.0388 
     280.0000m             1.0310k                       0.                       -30.0388 
     290.0000m             1.0310k                       0.                       -30.0388 
     300.0000m             1.0310k                       0.                       -30.0388 
     310.0000m             1.0310k                       0.                       -30.0388 
     320.0000m             1.0310k                       0.                       -30.0388 
     330.0000m             1.0310k                       0.                       -30.0388 
     340.0000m             1.0310k                       0.                       -30.0388 
     350.0000m             1.0310k                       0.                       -30.0388 
     360.0000m             1.0310k                       0.                       -30.0388 
     370.0000m             1.0310k                       0.                       -30.0388 
     380.0000m             1.0310k                       0.                       -30.0388 
     390.0000m             1.0310k                       0.                       -30.0388 
     400.0000m             1.0310k                       0.                       -30.0388 
     410.0000m             1.0310k                       0.                       -30.0388 
     420.0000m             1.0310k                       0.                       -30.0388 
     430.0000m             1.0310k                       0.                       -30.0388 
     440.0000m             1.0310k                       0.                       -30.0388 
     450.0000m             1.0310k                       0.                       -30.0388 
     460.0000m             1.0310k                       0.                       -30.0388 
     470.0000m             1.0310k                       0.                       -30.0388 
     480.0000m             1.0310k                       0.                       -30.0388 
     490.0000m             1.0310k                       0.                       -30.0388 
     500.0000m             1.0310k                       0.                       -30.0388 
     510.0000m             1.0310k                       0.                       -30.0388 
     520.0000m             1.0310k                       0.                       -30.0388 
     530.0000m             1.0310k                       0.                       -30.0388 
     540.0000m             1.0310k                       0.                       -30.0388 
     550.0000m             1.0310k                       0.                       -30.0388 
     560.0000m             1.0310k                       0.                       -30.0388 
     570.0000m             1.0310k                       0.                       -30.0388 
     580.0000m             1.0310k                       0.                       -30.0388 
     590.0000m             1.0310k                       0.                       -30.0388 
     600.0000m             1.0310k                       0.                       -30.0388 
     610.0000m             1.0310k                       0.                       -30.0388 
     620.0000m             1.0310k                       0.                       -30.0388 
     630.0000m             1.0310k                       0.                       -30.0388 
     640.0000m             1.0310k                       0.                       -30.0388 
     650.0000m             1.0310k                       0.                       -30.0388 
     660.0000m             1.0310k                       0.                       -30.0388 
     670.0000m             1.0310k                       0.                       -30.0388 
     680.0000m             1.0310k                       0.                       -30.0388 
     690.0000m             1.0310k                       0.                       -30.0388 
     700.0000m             1.0310k                       0.                       -30.0388 
     710.0000m             1.0310k                       0.                       -30.0388 
     720.0000m             1.0310k                       0.                       -30.0388 
     730.0000m             1.0310k                       0.                       -30.0388 
     740.0000m             1.0310k                       0.                       -30.0388 
     750.0000m             1.0310k                       0.                       -30.0388 
     760.0000m             1.0310k                       0.                       -30.0388 
     770.0000m             1.0310k                       0.                       -30.0388 
     780.0000m             1.0310k                       0.                       -30.0388 
     790.0000m             1.0310k                       0.                       -30.0388 
     800.0000m             1.0310k                       0.                       -30.0388 
     810.0000m             1.0310k                       0.                       -30.0388 
     820.0000m             1.0310k                       0.                       -30.0388 
     830.0000m             1.0310k                       0.                       -30.0388 
     840.0000m             1.0310k                       0.                       -30.0388 
     850.0000m             1.0310k                       0.                       -30.0388 
     860.0000m             1.0310k                       0.                       -30.0388 
     870.0000m             1.0310k                       0.                       -30.0388 
     880.0000m             1.0310k                       0.                       -30.0388 
     890.0000m             1.0310k                       0.                       -30.0388 
     900.0000m             1.0310k                       0.                       -30.0388 
     910.0000m             1.0310k                       0.                       -30.0388 
     920.0000m             1.0310k                       0.                       -30.0388 
     930.0000m             1.0310k                       0.                       -30.0388 
     940.0000m             1.0310k                       0.                       -30.0388 
     950.0000m             1.0310k                       0.                       -30.0388 
     960.0000m             1.0310k                       0.                       -30.0388 
     970.0000m             1.0310k                       0.                       -30.0388 
     980.0000m             1.0310k                       0.                       -30.0388 
     990.0000m             1.0310k                       0.                       -30.0388 
       1.0000              1.0310k                       0.                       -30.0388 
       1.0100              1.0310k                       0.                       -30.0388 
       1.0200              1.0310k                       0.                       -30.0388 
       1.0300              1.0310k                       0.                       -30.0388 
       1.0400              1.0310k                       0.                       -30.0388 
       1.0500              1.0310k                       0.                       -30.0388 
       1.0600              1.0310k                       0.                       -30.0388 
       1.0700              1.0310k                       0.                       -30.0388 
       1.0800              1.0310k                       0.                       -30.0388 
       1.0900              1.0310k                       0.                       -30.0388 
       1.1000              1.0310k                       0.                       -30.0388 
       1.1100              1.0310k                       0.                       -30.0388 
       1.1200              1.0310k                       0.                       -30.0388 
       1.1300              1.0310k                       0.                       -30.0388 
       1.1400              1.0310k                       0.                       -30.0388 
       1.1500              1.0310k                       0.                       -30.0388 
       1.1600              1.0310k                       0.                       -30.0388 
       1.1700              1.0310k                       0.                       -30.0388 
       1.1800              1.0310k                       0.                       -30.0388 
       1.1900              1.0310k                       0.                       -30.0388 
       1.2000              1.0310k                       0.                       -30.0388 
       1.2100              1.0310k                       0.                       -30.0388 
       1.2200              1.0310k                       0.                       -30.0388 
       1.2300              1.0310k                       0.                       -30.0388 
       1.2400              1.0310k                       0.                       -30.0388 
       1.2500              1.0310k                       0.                       -30.0388 
       1.2600              1.0310k                       0.                       -30.0388 
       1.2700              1.0310k                       0.                       -30.0388 
       1.2800              1.0310k                       0.                       -30.0388 
       1.2900              1.0310k                       0.                       -30.0388 
       1.3000              1.0310k                       0.                       -30.0388 
       1.3100              1.0310k                       0.                       -30.0388 
       1.3200              1.0310k                       0.                       -30.0388 
       1.3300              1.0310k                       0.                       -30.0388 
       1.3400              1.0310k                       0.                       -30.0388 
       1.3500              1.0310k                       0.                       -30.0388 
       1.3600              1.0310k                       0.                       -30.0388 
       1.3700              1.0310k                       0.                       -30.0388 
       1.3800              1.0310k                       0.                       -30.0388 
       1.3900              1.0310k                       0.                       -30.0388 
       1.4000              1.0310k                       0.                       -30.0388 
       1.4100              1.0310k                       0.                       -30.0388 
       1.4200              1.0310k                       0.                       -30.0388 
       1.4300              1.0310k                       0.                       -30.0388 
       1.4400              1.0310k                       0.                       -30.0388 
       1.4500              1.0310k                       0.                       -30.0388 
       1.4600              1.0310k                       0.                       -30.0388 
       1.4700              1.0310k                       0.                       -30.0388 
       1.4800              1.0310k                       0.                       -30.0388 
       1.4900              1.0310k                       0.                       -30.0388 
       1.5000              1.0310k                       0.                       -30.0388 
       1.5100              1.0310k                       0.                       -30.0388 
       1.5200              1.0310k                       0.                       -30.0388 
       1.5300              1.0310k                       0.                       -30.0388 
       1.5400              1.0310k                       0.                       -30.0388 
       1.5500              1.0310k                       0.                       -30.0388 
       1.5600              1.0310k                       0.                       -30.0388 
       1.5700              1.0310k                       0.                       -30.0388 
       1.5800              1.0310k                       0.                       -30.0388 
       1.5900              1.0310k                       0.                       -30.0388 
       1.6000              1.0310k                       0.                       -30.0388 
       1.6100              1.0310k                       0.                       -30.0388 
       1.6200              1.0310k                       0.                       -30.0388 
       1.6300              1.0310k                       0.                       -30.0388 
       1.6400              1.0310k                       0.                       -30.0388 
       1.6500              1.0310k                       0.                       -30.0388 
       1.6600              1.0310k                       0.                       -30.0388 
       1.6700              1.0310k                       0.                       -30.0388 
       1.6800              1.0310k                       0.                       -30.0388 
       1.6900              1.0310k                       0.                       -30.0388 
       1.7000              1.0310k                       0.                       -30.0388 
       1.7100              1.0310k                       0.                       -30.0388 
       1.7200              1.0310k                       0.                       -30.0388 
       1.7300              1.0310k                       0.                       -30.0388 
       1.7400              1.0310k                       0.                       -30.0388 
       1.7500              1.0310k                       0.                       -30.0388 
       1.7600              1.0310k                       0.                       -30.0388 
       1.7700              1.0310k                       0.                       -30.0388 
       1.7800              1.0310k                       0.                       -30.0388 
       1.7900              1.0310k                       0.                       -30.0388 
       1.8000              1.0310k                       0.                       -30.0388 
       1.8100              1.0310k                       0.                       -30.0388 
       1.8200              1.0310k                       0.                       -30.0388 
       1.8300              1.0310k                       0.                       -30.0388 
       1.8400              1.0310k                       0.                       -30.0388 
       1.8500              1.0310k                       0.                       -30.0388 
       1.8600              1.0310k                       0.                       -30.0388 
       1.8700              1.0310k                       0.                       -30.0388 
       1.8800              1.0310k                       0.                       -30.0388 
       1.8900              1.0310k                       0.                       -30.0388 
       1.9000              1.0310k                       0.                       -30.0388 
       1.9100              1.0310k                       0.                       -30.0388 
       1.9200              1.0310k                       0.                       -30.0388 
       1.9300              1.0310k                       0.                       -30.0388 
       1.9400              1.0310k                       0.                       -30.0388 
       1.9500              1.0310k                       0.                       -30.0388 
       1.9600              1.0310k                       0.                       -30.0388 
       1.9700              1.0310k                       0.                       -30.0388 
       1.9800              1.0310k                       0.                       -30.0388 
       1.9900              1.0310k                       0.                       -30.0388 
       2.0000              1.0310k                       0.                       -30.0388 
       2.0100              1.0310k                       0.                       -30.0388 
       2.0200              1.0310k                       0.                       -30.0388 
       2.0300              1.0310k                       0.                       -30.0388 
       2.0400              1.0310k                       0.                       -30.0388 
       2.0500              1.0310k                       0.                       -30.0388 
       2.0600              1.0310k                       0.                       -30.0388 
       2.0700              1.0310k                       0.                       -30.0388 
       2.0800              1.0310k                       0.                       -30.0388 
       2.0900              1.0310k                       0.                       -30.0388 
       2.1000              1.0310k                       0.                       -30.0388 
       2.1100              1.0310k                       0.                       -30.0388 
       2.1200              1.0310k                       0.                       -30.0388 
       2.1300              1.0310k                       0.                       -30.0388 
       2.1400              1.0310k                       0.                       -30.0388 
       2.1500              1.0310k                       0.                       -30.0388 
       2.1600              1.0310k                       0.                       -30.0388 
       2.1700              1.0310k                       0.                       -30.0388 
       2.1800              1.0310k                       0.                       -30.0388 
       2.1900              1.0310k                       0.                       -30.0388 
       2.2000              1.0310k                       0.                       -30.0388 
       2.2100              1.0310k                       0.                       -30.0388 
       2.2200              1.0310k                       0.                       -30.0388 
       2.2300              1.0310k                       0.                       -30.0388 
       2.2400              1.0310k                       0.                       -30.0388 
       2.2500              1.0310k                       0.                       -30.0388 
       2.2600              1.0310k                       0.                       -30.0388 
       2.2700              1.0310k                       0.                       -30.0388 
       2.2800              1.0310k                       0.                       -30.0388 
       2.2900              1.0310k                       0.                       -30.0388 
       2.3000              1.0310k                       0.                       -30.0388 
       2.3100              1.0310k                       0.                       -30.0388 
       2.3200              1.0310k                       0.                       -30.0388 
       2.3300              1.0310k                       0.                       -30.0388 
       2.3400              1.0310k                       0.                       -30.0388 
       2.3500              1.0310k                       0.                       -30.0388 
       2.3600              1.0310k                       0.                       -30.0388 
       2.3700              1.0310k                       0.                       -30.0388 
       2.3800              1.0310k                       0.                       -30.0388 
       2.3900              1.0310k                       0.                       -30.0388 
       2.4000              1.0310k                       0.                       -30.0388 
       2.4100              1.0310k                       0.                       -30.0388 
       2.4200              1.0310k                       0.                       -30.0388 
       2.4300              1.0310k                       0.                       -30.0388 
       2.4400              1.0310k                       0.                       -30.0388 
       2.4500              1.0310k                       0.                       -30.0388 
       2.4600              1.0310k                       0.                       -30.0388 
       2.4700              1.0310k                       0.                       -30.0388 
       2.4800              1.0310k                       0.                       -30.0388 
       2.4900              1.0310k                       0.                       -30.0388 
       2.5000              1.0310k                       0.                       -30.0388 
       2.5100              1.0310k                       0.                       -30.0388 
       2.5200              1.0310k                       0.                       -30.0388 
       2.5300              1.0310k                       0.                       -30.0388 
       2.5400              1.0310k                       0.                       -30.0388 
       2.5500              1.0310k                       0.                       -30.0388 
       2.5600              1.0310k                       0.                       -30.0388 
       2.5700              1.0310k                       0.                       -30.0388 
       2.5800              1.0310k                       0.                       -30.0388 
       2.5900              1.0310k                       0.                       -30.0388 
       2.6000              1.0310k                       0.                       -30.0388 
       2.6100              1.0310k                       0.                       -30.0388 
       2.6200              1.0310k                       0.                       -30.0388 
       2.6300              1.0310k                       0.                       -30.0388 
       2.6400              1.0310k                       0.                       -30.0388 
       2.6500              1.0310k                       0.                       -30.0388 
       2.6600              1.0310k                       0.                       -30.0388 
       2.6700              1.0310k                       0.                       -30.0388 
       2.6800              1.0310k                       0.                       -30.0388 
       2.6900              1.0310k                       0.                       -30.0388 
       2.7000              1.0310k                       0.                       -30.0388 
       2.7100              1.0310k                       0.                       -30.0388 
       2.7200              1.0310k                       0.                       -30.0388 
       2.7300              1.0310k                       0.                       -30.0388 
       2.7400              1.0310k                       0.                       -30.0388 
       2.7500              1.0310k                       0.                       -30.0388 
       2.7600              1.0310k                       0.                       -30.0388 
       2.7700              1.0310k                       0.                       -30.0388 
       2.7800              1.0310k                       0.                       -30.0388 
       2.7900              1.0310k                       0.                       -30.0388 
       2.8000              1.0310k                       0.                       -30.0388 
       2.8100              1.0310k                       0.                       -30.0388 
       2.8200              1.0310k                       0.                       -30.0388 
       2.8300              1.0310k                       0.                       -30.0388 
       2.8400              1.0310k                       0.                       -30.0388 
       2.8500              1.0310k                       0.                       -30.0388 
       2.8600              1.0310k                       0.                       -30.0388 
       2.8700              1.0310k                       0.                       -30.0388 
       2.8800              1.0310k                       0.                       -30.0388 
       2.8900              1.0310k                       0.                       -30.0388 
       2.9000              1.0310k                       0.                       -30.0388 
       2.9100              1.0310k                       0.                       -30.0388 
       2.9200              1.0310k                       0.                       -30.0388 
       2.9300              1.0310k                       0.                       -30.0388 
       2.9400              1.0310k                       0.                       -30.0388 
       2.9500              1.0310k                       0.                       -30.0388 
       2.9600              1.0310k                       0.                       -30.0388 
       2.9700              1.0310k                       0.                       -30.0388 
       2.9800              1.0310k                       0.                       -30.0388 
       2.9900              1.0310k                       0.                       -30.0388 
       3.0000              1.0310k                       0.                       -30.0388 
       3.0100              1.0310k                       0.                       -30.0388 
       3.0200              1.0310k                       0.                       -30.0388 
       3.0300              1.0310k                       0.                       -30.0388 
       3.0400              1.0310k                       0.                       -30.0388 
       3.0500              1.0310k                       0.                       -30.0388 
       3.0600              1.0310k                       0.                       -30.0388 
       3.0700              1.0310k                       0.                       -30.0388 
       3.0800              1.0310k                       0.                       -30.0388 
       3.0900              1.0310k                       0.                       -30.0388 
       3.1000              1.0310k                       0.                       -30.0388 
       3.1100              1.0310k                       0.                       -30.0388 
       3.1200              1.0310k                       0.                       -30.0388 
       3.1300              1.0310k                       0.                       -30.0388 
       3.1400              1.0310k                       0.                       -30.0388 
       3.1500              1.0310k                       0.                       -30.0388 
       3.1600              1.0310k                       0.                       -30.0388 
       3.1700              1.0310k                       0.                       -30.0388 
       3.1800              1.0310k                       0.                       -30.0388 
       3.1900              1.0310k                       0.                       -30.0388 
       3.2000              1.0310k                       0.                       -30.0388 
       3.2100              1.0310k                       0.                       -30.0388 
       3.2200              1.0310k                       0.                       -30.0388 
       3.2300              1.0310k                       0.                       -30.0388 
       3.2400              1.0310k                       0.                       -30.0388 
       3.2500              1.0310k                       0.                       -30.0388 
       3.2600              1.0310k                       0.                       -30.0388 
       3.2700              1.0310k                       0.                       -30.0388 
       3.2800              1.0310k                       0.                       -30.0388 
       3.2900              1.0310k                       0.                       -30.0388 
       3.3000              1.0310k                       0.                       -30.0388 
       3.3100              1.0310k                       0.                       -30.0388 
       3.3200              1.0310k                       0.                       -30.0388 
       3.3300              1.0310k                       0.                       -30.0388 
       3.3400              1.0310k                       0.                       -30.0388 
       3.3500              1.0310k                       0.                       -30.0388 
       3.3600              1.0310k                       0.                       -30.0388 
       3.3700              1.0310k                       0.                       -30.0388 
       3.3800              1.0310k                       0.                       -30.0388 
       3.3900              1.0310k                       0.                       -30.0388 
       3.4000              1.0310k                       0.                       -30.0388 
       3.4100              1.0310k                       0.                       -30.0388 
       3.4200              1.0310k                       0.                       -30.0388 
       3.4300              1.0310k                       0.                       -30.0388 
       3.4400              1.0310k                       0.                       -30.0388 
       3.4500              1.0310k                       0.                       -30.0388 
       3.4600              1.0310k                       0.                       -30.0388 
       3.4700              1.0310k                       0.                       -30.0388 
       3.4800              1.0310k                       0.                       -30.0388 
       3.4900              1.0310k                       0.                       -30.0388 
       3.5000              1.0310k                       0.                       -30.0388 
       3.5100              1.0310k                       0.                       -30.0388 
       3.5200              1.0310k                       0.                       -30.0388 
       3.5300              1.0310k                       0.                       -30.0388 
       3.5400              1.0310k                       0.                       -30.0388 
       3.5500              1.0310k                       0.                       -30.0388 
       3.5600              1.0310k                       0.                       -30.0388 
       3.5700              1.0310k                       0.                       -30.0388 
       3.5800              1.0310k                       0.                       -30.0388 
       3.5900              1.0310k                       0.                       -30.0388 
       3.6000              1.0310k                       0.                       -30.0388 
       3.6100              1.0310k                       0.                       -30.0388 
       3.6200              1.0310k                       0.                       -30.0388 
       3.6300              1.0310k                       0.                       -30.0388 
       3.6400              1.0310k                       0.                       -30.0388 
       3.6500              1.0310k                       0.                       -30.0388 
       3.6600              1.0310k                       0.                       -30.0388 
       3.6700              1.0310k                       0.                       -30.0388 
       3.6800              1.0310k                       0.                       -30.0388 
       3.6900              1.0310k                       0.                       -30.0388 
       3.7000              1.0310k                       0.                       -30.0388 
       3.7100              1.0310k                       0.                       -30.0388 
       3.7200              1.0310k                       0.                       -30.0388 
       3.7300              1.0310k                       0.                       -30.0388 
       3.7400              1.0310k                       0.                       -30.0388 
       3.7500              1.0310k                       0.                       -30.0388 
       3.7600              1.0310k                       0.                       -30.0388 
       3.7700              1.0310k                       0.                       -30.0388 
       3.7800              1.0310k                       0.                       -30.0388 
       3.7900              1.0310k                       0.                       -30.0388 
       3.8000              1.0310k                       0.                       -30.0388 
       3.8100              1.0310k                       0.                       -30.0388 
       3.8200              1.0310k                       0.                       -30.0388 
       3.8300              1.0310k                       0.                       -30.0388 
       3.8400              1.0310k                       0.                       -30.0388 
       3.8500              1.0310k                       0.                       -30.0388 
       3.8600              1.0310k                       0.                       -30.0388 
       3.8700              1.0310k                       0.                       -30.0388 
       3.8800              1.0310k                       0.                       -30.0388 
       3.8900              1.0310k                       0.                       -30.0388 
       3.9000              1.0310k                       0.                       -30.0388 
       3.9100              1.0310k                       0.                       -30.0388 
       3.9200              1.0310k                       0.                       -30.0388 
       3.9300              1.0310k                       0.                       -30.0388 
       3.9400              1.0310k                       0.                       -30.0388 
       3.9500              1.0310k                       0.                       -30.0388 
       3.9600              1.0310k                       0.                       -30.0388 
       3.9700              1.0310k                       0.                       -30.0388 
       3.9800              1.0310k                       0.                       -30.0388 
       3.9900              1.0310k                       0.                       -30.0388 
       4.0000              1.0310k                       0.                       -30.0388 
       4.0100              1.0310k                       0.                       -30.0388 
       4.0200              1.0310k                       0.                       -30.0388 
       4.0300              1.0310k                       0.                       -30.0388 
       4.0400              1.0310k                       0.                       -30.0388 
       4.0500              1.0310k                       0.                       -30.0388 
       4.0600              1.0310k                       0.                       -30.0388 
       4.0700              1.0310k                       0.                       -30.0388 
       4.0800              1.0310k                       0.                       -30.0388 
       4.0900              1.0310k                       0.                       -30.0388 
       4.1000              1.0310k                       0.                       -30.0388 
       4.1100              1.0310k                       0.                       -30.0388 
       4.1200              1.0310k                       0.                       -30.0388 
       4.1300              1.0310k                       0.                       -30.0388 
       4.1400              1.0310k                       0.                       -30.0388 
       4.1500              1.0310k                       0.                       -30.0388 
       4.1600              1.0310k                       0.                       -30.0388 
       4.1700              1.0310k                       0.                       -30.0388 
       4.1800              1.0310k                       0.                       -30.0388 
       4.1900              1.0310k                       0.                       -30.0388 
       4.2000              1.0310k                       0.                       -30.0388 
       4.2100              1.0310k                       0.                       -30.0388 
       4.2200              1.0310k                       0.                       -30.0388 
       4.2300              1.0310k                       0.                       -30.0388 
       4.2400              1.0310k                       0.                       -30.0388 
       4.2500              1.0310k                       0.                       -30.0388 
       4.2600              1.0310k                       0.                       -30.0388 
       4.2700              1.0310k                       0.                       -30.0388 
       4.2800              1.0310k                       0.                       -30.0388 
       4.2900              1.0310k                       0.                       -30.0388 
       4.3000              1.0310k                       0.                       -30.0388 
       4.3100              1.0310k                       0.                       -30.0388 
       4.3200              1.0310k                       0.                       -30.0388 
       4.3300              1.0310k                       0.                       -30.0388 
       4.3400              1.0310k                       0.                       -30.0388 
       4.3500              1.0310k                       0.                       -30.0388 
       4.3600              1.0310k                       0.                       -30.0388 
       4.3700              1.0310k                       0.                       -30.0388 
       4.3800              1.0310k                       0.                       -30.0388 
       4.3900              1.0310k                       0.                       -30.0388 
       4.4000              1.0310k                       0.                       -30.0388 
       4.4100              1.0310k                       0.                       -30.0388 
       4.4200              1.0310k                       0.                       -30.0388 
       4.4300              1.0310k                       0.                       -30.0388 
       4.4400              1.0310k                       0.                       -30.0388 
       4.4500              1.0310k                       0.                       -30.0388 
       4.4600              1.0310k                       0.                       -30.0388 
       4.4700              1.0310k                       0.                       -30.0388 
       4.4800              1.0310k                       0.                       -30.0388 
       4.4900              1.0310k                       0.                       -30.0388 
       4.5000              1.0310k                       0.                       -30.0388 
       4.5100              1.0310k                       0.                       -30.0388 
       4.5200              1.0310k                       0.                       -30.0388 
       4.5300              1.0310k                       0.                       -30.0388 
       4.5400              1.0310k                       0.                       -30.0388 
       4.5500              1.0310k                       0.                       -30.0388 
       4.5600              1.0310k                       0.                       -30.0388 
       4.5700              1.0310k                       0.                       -30.0388 
       4.5800              1.0310k                       0.                       -30.0388 
       4.5900              1.0310k                       0.                       -30.0388 
       4.6000              1.0310k                       0.                       -30.0388 
       4.6100              1.0310k                       0.                       -30.0388 
       4.6200              1.0310k                       0.                       -30.0388 
       4.6300              1.0310k                       0.                       -30.0388 
       4.6400              1.0310k                       0.                       -30.0388 
       4.6500              1.0310k                       0.                       -30.0388 
       4.6600              1.0310k                       0.                       -30.0388 
       4.6700              1.0310k                       0.                       -30.0388 
       4.6800              1.0310k                       0.                       -30.0388 
       4.6900              1.0310k                       0.                       -30.0388 
       4.7000              1.0310k                       0.                       -30.0388 
       4.7100              1.0310k                       0.                       -30.0388 
       4.7200              1.0310k                       0.                       -30.0388 
       4.7300              1.0310k                       0.                       -30.0388 
       4.7400              1.0310k                       0.                       -30.0388 
       4.7500              1.0310k                       0.                       -30.0388 
       4.7600              1.0310k                       0.                       -30.0388 
       4.7700              1.0310k                       0.                       -30.0388 
       4.7800              1.0310k                       0.                       -30.0388 
       4.7900              1.0310k                       0.                       -30.0388 
       4.8000              1.0310k                       0.                       -30.0388 
       4.8100              1.0310k                       0.                       -30.0388 
       4.8200              1.0310k                       0.                       -30.0388 
       4.8300              1.0310k                       0.                       -30.0388 
       4.8400              1.0310k                       0.                       -30.0388 
       4.8500              1.0310k                       0.                       -30.0388 
       4.8600              1.0310k                       0.                       -30.0388 
       4.8700              1.0310k                       0.                       -30.0388 
       4.8800              1.0310k                       0.                       -30.0388 
       4.8900              1.0310k                       0.                       -30.0388 
       4.9000              1.0310k                       0.                       -30.0388 
       4.9100              1.0310k                       0.                       -30.0388 
       4.9200              1.0310k                       0.                       -30.0388 
       4.9300              1.0310k                       0.                       -30.0388 
       4.9400              1.0310k                       0.                       -30.0388 
       4.9500              1.0310k                       0.                       -30.0388 
       4.9600              1.0310k                       0.                       -30.0388 
       4.9700              1.0310k                       0.                       -30.0388 
       4.9800              1.0310k                       0.                       -30.0388 
       4.9900              1.0310k                       0.                       -30.0388 
       5.0000              1.0310k                       0.                       -30.0388 
  
 **info** dc convergence successful at Newton-Raphson method 
1****** HSPICE -- N-2017.12-SP2 linux64 (May 24 2018) ******                    
 ******  
 *lab4

 ****** operating point information tnom=  25.000 temp=  25.000 ******
 ****** operating point status is all       simulation time is     0.     
    node    =voltage      node    =voltage      node    =voltage

 +0:in      = 100.0000m 0:in1     =   3.0039m 0:out     =  -3.0039 


 maximum nodal capacitance=    0.00             on node     0:0               

    nodal  capacitance table 

    node    =    cap      node    =    cap      node    =    cap

 +0:in      =   0.      0:in1     =   0.      0:out     =   0.     

 

 **** voltage sources

 subckt             
 element  0:vin     
  volts    100.0000m
  current  -96.9961u
  power      9.6996u

     total voltage source power dissipation=    9.6996u       watts



 **** resistors

 subckt                        
 element  0:r1       0:r2      
  r value   31.0000k    1.0000k
  v drop    -3.0069   -96.9961m
  current  -96.9961u  -96.9961u
  power    291.6557u    9.4082u


 **** voltage-controlled voltage sources


 subckt             
 element  0:eopamp  
  volts     -3.0039 
  current   96.9961u







 ****     small-signal transfer characteristics

      v(out)/vin                               =  -30.0388 
      input resistance at             vin      =    1.0310k
      output resistance at v(out)              =    0.     




          ***** job concluded
 ******  
 *lab4

 ****** job statistics summary tnom=  25.000 temp=  25.000 ******
  
  
 ******  Machine Information  ******
 CPU:
 model name	: 13th Gen Intel(R) Core(TM) i5-13600KF
 cpu MHz	: 3494.401
  
 OS:
 Linux version 3.10.0-1062.el7.x86_64 (mockbuild@kbuilder.bsys.centos.org) (gcc version 4.8.5 20150623 (Red Hat 4.8.5-36) (GCC) ) #1 SMP Wed Aug 7 18:08:02 UTC 2019


  ******  HSPICE Threads Information  ******

  Command Line Threads Count :     1
  Available CPU Count        :     4
  Actual Threads Count       :     1


  ******  Circuit Statistics  ******
  # nodes       =       4 # elements   =       4
  # resistors   =       2 # capacitors =       0 # inductors   =       0
  # mutual_inds =       0 # vccs       =       0 # vcvs        =       1
  # cccs        =       0 # ccvs       =       0 # volt_srcs   =       1
  # curr_srcs   =       0 # diodes     =       0 # bjts        =       0
  # jfets       =       0 # mosfets    =       0 # U elements  =       0
  # T elements  =       0 # W elements =       0 # B elements  =       0
  # S elements  =       0 # P elements =       0 # va device   =       0
  # vector_srcs =       0 # N elements =       0


  ******  Runtime Statistics (seconds)  ******

  analysis           time    # points   tot. iter  conv.iter
  op point           0.00           1           4
  dc sweep           0.00         501        1003
  readin             0.00
  errchk             0.00
  setup              0.01
  output             0.00


           peak memory used        316.06 megabytes
           total cpu time            0.01 seconds
           total elapsed time        0.16 seconds
           job started at     21:02:56 02/10/2026
           job ended   at     21:02:56 02/10/2026


 lic: Release hspice token(s) 
 lic: total license checkout elapse time:        0.14(s)
